* File: /home/csd1722/digicdesign/vlsi_final/filter/layout/layout.pex.netlist
* Created: Fri Dec 12 16:06:30 2014
* Program "Calibre xRC"
* Version "v2013.4_26.18"
* 
.include "/home/csd1722/digicdesign/vlsi_final/filter/layout/layout.pex.netlist.pex"
.subckt LAYOUT  THRESHOLD[9] EDGE T21[7] T10[6] T02[7] T12[7] THRESHOLD[7]
+ THRESHOLD[10] T12[6] THRESHOLD[8] T20[7] T22[7] DIRECTION[0] T10[7] T00[7]
+ T00[5] T00[6] T22[6] THRESHOLD[3] T01[7] THRESHOLD[2] DIRECTION[1] T12[5]
+ T22[5] THRESHOLD[0] T01[6] T10[4] T21[5] T22[4] T21[3] T20[4] O_VALID T21[0]
+ CLOCK RESET T10[2] T02[4] T22[3] T12[0] T01[0] T21[1] T00[2] T01[1] T12[4]
+ T02[1] T12[3] T12[2] T01[4] T02[2] I_VALID T21[2] T12[1] T21[4] T10[3] T00[4]
+ T02[3] T22[1] READY THRESHOLD[6] THRESHOLD[5] DIRECTION[2] THRESHOLD[4] T20[6]
+ T10[5] T02[6] T02[5] THRESHOLD[1] T21[6] T01[5] T20[5] T01[2] T00[1] T10[1]
+ T00[0] T00[3] T10[0] T22[2] T20[3] T01[3] T20[2] T20[1] T22[0] T20[0] T02[0]
+ VDD GND
* 
* GND	GND
* VDD	VDD
* T02[0]	T02[0]
* T20[0]	T20[0]
* T22[0]	T22[0]
* T20[1]	T20[1]
* T20[2]	T20[2]
* T01[3]	T01[3]
* T20[3]	T20[3]
* T22[2]	T22[2]
* T10[0]	T10[0]
* T00[3]	T00[3]
* T00[0]	T00[0]
* T10[1]	T10[1]
* T00[1]	T00[1]
* T01[2]	T01[2]
* T20[5]	T20[5]
* T01[5]	T01[5]
* T21[6]	T21[6]
* THRESHOLD[1]	THRESHOLD[1]
* T02[5]	T02[5]
* T02[6]	T02[6]
* T10[5]	T10[5]
* T20[6]	T20[6]
* THRESHOLD[4]	THRESHOLD[4]
* DIRECTION[2]	DIRECTION[2]
* THRESHOLD[5]	THRESHOLD[5]
* THRESHOLD[6]	THRESHOLD[6]
* READY	READY
* T22[1]	T22[1]
* T02[3]	T02[3]
* T00[4]	T00[4]
* T10[3]	T10[3]
* T21[4]	T21[4]
* T12[1]	T12[1]
* T21[2]	T21[2]
* I_VALID	I_VALID
* T02[2]	T02[2]
* T01[4]	T01[4]
* T12[2]	T12[2]
* T12[3]	T12[3]
* T02[1]	T02[1]
* T12[4]	T12[4]
* T01[1]	T01[1]
* T00[2]	T00[2]
* T21[1]	T21[1]
* T01[0]	T01[0]
* T12[0]	T12[0]
* T22[3]	T22[3]
* T02[4]	T02[4]
* T10[2]	T10[2]
* RESET	RESET
* CLOCK	CLOCK
* T21[0]	T21[0]
* O_VALID	O_VALID
* T20[4]	T20[4]
* T21[3]	T21[3]
* T22[4]	T22[4]
* T21[5]	T21[5]
* T10[4]	T10[4]
* T01[6]	T01[6]
* THRESHOLD[0]	THRESHOLD[0]
* T22[5]	T22[5]
* T12[5]	T12[5]
* DIRECTION[1]	DIRECTION[1]
* THRESHOLD[2]	THRESHOLD[2]
* T01[7]	T01[7]
* THRESHOLD[3]	THRESHOLD[3]
* T22[6]	T22[6]
* T00[6]	T00[6]
* T00[5]	T00[5]
* T00[7]	T00[7]
* T10[7]	T10[7]
* DIRECTION[0]	DIRECTION[0]
* T22[7]	T22[7]
* T20[7]	T20[7]
* THRESHOLD[8]	THRESHOLD[8]
* T12[6]	T12[6]
* THRESHOLD[10]	THRESHOLD[10]
* THRESHOLD[7]	THRESHOLD[7]
* T12[7]	T12[7]
* T02[7]	T02[7]
* T10[6]	T10[6]
* T21[7]	T21[7]
* EDGE	EDGE
* THRESHOLD[9]	THRESHOLD[9]
M0 N_DIRECTION[2]_M0_d N_166_M0_g N_GND_M0_s N_GND_X60.M0_b n L=1.8e-07
+ W=4.5e-07 AD=5.3055e-13 AS=2.9565e-13
M1 N_1009_M1_d N_484_M1_g N_DIRECTION[2]_M1_s N_GND_X60.M0_b n L=1.8e-07
+ W=9.9e-07 AD=3.564e-13 AS=5.3055e-13
M2 N_GND_M2_d N_472_M2_g N_1009_M2_s N_GND_X60.M0_b n L=1.8e-07 W=9.9e-07
+ AD=5.6295e-13 AS=3.564e-13
M3 N_998_M3_d N_647_M3_g N_990_M3_s N_GND_X60.M0_b n L=1.8e-07 W=9.9e-07
+ AD=5.346e-13 AS=4.9005e-13
M4 N_990_M4_d N_230_M4_g N_998_M4_s N_GND_X60.M0_b n L=1.8e-07 W=9.9e-07
+ AD=5.346e-13 AS=5.346e-13
M5 N_998_M5_d N_THRESHOLD[0]_M5_g N_990_M5_s N_GND_X60.M0_b n L=1.8e-07
+ W=9.9e-07 AD=5.346e-13 AS=5.346e-13
M6 N_GND_M6_d N_THRESHOLD[1]_M6_g N_998_M6_s N_GND_X60.M0_b n L=1.8e-07
+ W=9.9e-07 AD=5.994e-13 AS=5.346e-13
M7 N_998_M7_d N_655_M7_g N_GND_M7_s N_GND_X60.M0_b n L=1.8e-07 W=9.9e-07
+ AD=4.9005e-13 AS=5.994e-13
M8 N_GND_M8_d N_999_M8_g N_936_M8_s N_GND_X60.M0_b n L=1.8e-07 W=4.5e-07
+ AD=3.402e-13 AS=2.2275e-13
M9 N_999_M9_d N_978_M9_g N_GND_M9_s N_GND_X60.M0_b n L=1.8e-07 W=5.4e-07
+ AD=2.916e-13 AS=3.402e-13
M10 N_GND_M10_d N_960_M10_g N_999_M10_s N_GND_X60.M0_b n L=1.8e-07 W=5.4e-07
+ AD=3.564e-13 AS=2.916e-13
M11 N_999_M11_d N_O_VALID_M11_g N_GND_M11_s N_GND_X60.M0_b n L=1.8e-07 W=5.4e-07
+ AD=2.5515e-13 AS=3.564e-13
M12 N_1010_M12_d N_1005_M12_g N_GND_M12_s N_GND_X60.M0_b n L=1.8e-07 W=1.53e-06
+ AD=5.508e-13 AS=8.3025e-13
M13 N_1001_M13_d N_GND_M13_g N_1010_M13_s N_GND_X60.M0_b n L=1.8e-07 W=1.53e-06
+ AD=7.9785e-13 AS=5.508e-13
M14 N_1011_M14_d N_1002_M14_g N_1001_M14_s N_GND_X60.M0_b n L=1.8e-07 W=4.5e-07
+ AD=1.62e-13 AS=7.9785e-13
M15 N_GND_M15_d N_1000_M15_g N_1011_M15_s N_GND_X60.M0_b n L=1.8e-07 W=4.5e-07
+ AD=6.0345e-13 AS=1.62e-13
M16 N_1012_M16_d N_1001_M16_g N_GND_M16_s N_GND_X60.M0_b n L=1.8e-07 W=9.9e-07
+ AD=3.564e-13 AS=6.0345e-13
M17 N_1002_M17_d N_1003_M17_g N_1012_M17_s N_GND_X60.M0_b n L=1.8e-07 W=9.9e-07
+ AD=4.9005e-13 AS=3.564e-13
M18 N_GND_M18_d N_RESET_M18_g N_1003_M18_s N_GND_X60.M0_b n L=1.8e-07 W=9.9e-07
+ AD=5.346e-13 AS=4.9005e-13
M19 N_1004_M19_d N_1002_M19_g N_GND_M19_s N_GND_X60.M0_b n L=1.8e-07 W=9.9e-07
+ AD=4.9005e-13 AS=5.346e-13
M20 N_GND_M20_d N_CLOCK_M20_g N_1005_M20_s N_GND_X60.M0_b n L=1.8e-07 W=9.9e-07
+ AD=5.346e-13 AS=4.9005e-13
M21 N_1000_M21_d N_1005_M21_g N_GND_M21_s N_GND_X60.M0_b n L=1.8e-07 W=9.9e-07
+ AD=4.9005e-13 AS=5.346e-13
M22 N_1006_M22_d N_1005_M22_g N_1007_M22_s N_GND_X60.M0_b n L=1.8e-07 W=4.5e-07
+ AD=7.9785e-13 AS=2.2275e-13
M23 N_1013_M23_d N_1004_M23_g N_1006_M23_s N_GND_X60.M0_b n L=1.8e-07 W=1.53e-06
+ AD=5.508e-13 AS=7.9785e-13
M24 N_GND_M24_d N_1000_M24_g N_1013_M24_s N_GND_X60.M0_b n L=1.8e-07 W=1.53e-06
+ AD=8.7075e-13 AS=5.508e-13
M25 N_1014_M25_d N_1008_M25_g N_GND_M25_s N_GND_X60.M0_b n L=1.8e-07 W=4.5e-07
+ AD=1.62e-13 AS=8.7075e-13
M26 N_1007_M26_d N_1003_M26_g N_1014_M26_s N_GND_X60.M0_b n L=1.8e-07 W=4.5e-07
+ AD=2.2275e-13 AS=1.62e-13
M27 N_1008_M27_d N_1006_M27_g N_GND_M27_s N_GND_X60.M0_b n L=1.8e-07 W=4.5e-07
+ AD=2.2275e-13 AS=2.9565e-13
M28 N_GND_M28_d N_1006_M28_g N_996_M28_s N_GND_X60.M0_b n L=1.8e-07 W=9.9e-07
+ AD=5.994e-13 AS=4.9005e-13
M29 N_960_M29_d N_996_M29_g N_GND_M29_s N_GND_X60.M0_b n L=1.8e-07 W=9.9e-07
+ AD=4.9005e-13 AS=5.994e-13
M30 N_997_M30_d N_166_M30_g N_DIRECTION[2]_M30_s N_VDD_M30_b p L=1.8e-07
+ W=1.53e-06 AD=8.262e-13 AS=7.5735e-13
M31 N_VDD_M31_d N_484_M31_g N_997_M31_s N_VDD_M30_b p L=1.8e-07 W=1.53e-06
+ AD=8.91e-13 AS=8.262e-13
M32 N_997_M32_d N_472_M32_g N_VDD_M32_s N_VDD_M30_b p L=1.8e-07 W=1.53e-06
+ AD=7.5735e-13 AS=8.91e-13
M33 N_1015_M33_d N_647_M33_g N_VDD_M33_s N_VDD_M33_b p L=1.8e-07 W=3.87e-06
+ AD=1.3932e-12 AS=1.96425e-12
M34 N_1016_M34_d N_230_M34_g N_1015_M34_s N_VDD_M33_b p L=1.8e-07 W=3.87e-06
+ AD=1.3932e-12 AS=1.3932e-12
M35 N_990_M35_d N_THRESHOLD[0]_M35_g N_1016_M35_s N_VDD_M33_b p L=1.8e-07
+ W=3.87e-06 AD=2.12625e-12 AS=1.3932e-12
M36 N_1017_M36_d N_THRESHOLD[1]_M36_g N_990_M36_s N_VDD_M33_b p L=1.8e-07
+ W=2.61e-06 AD=9.396e-13 AS=2.12625e-12
M37 N_VDD_M37_d N_655_M37_g N_1017_M37_s N_VDD_M33_b p L=1.8e-07 W=2.61e-06
+ AD=1.36485e-12 AS=9.396e-13
M38 N_VDD_M38_d N_999_M38_g N_936_M38_s N_VDD_M38_b p L=1.8e-07 W=9.9e-07
+ AD=1.5876e-12 AS=4.9005e-13
M39 N_1018_M39_d N_978_M39_g N_VDD_M39_s N_VDD_M38_b p L=1.8e-07 W=2.88e-06
+ AD=1.0368e-12 AS=1.5876e-12
M40 N_1019_M40_d N_960_M40_g N_1018_M40_s N_VDD_M38_b p L=1.8e-07 W=2.88e-06
+ AD=1.0368e-12 AS=1.0368e-12
M41 N_999_M41_d N_O_VALID_M41_g N_1019_M41_s N_VDD_M38_b p L=1.8e-07 W=2.88e-06
+ AD=1.38915e-12 AS=1.0368e-12
M42 N_1020_M42_d N_1000_M42_g N_VDD_M42_s N_VDD_M42_b p L=1.8e-07 W=2.88e-06
+ AD=1.0368e-12 AS=1.46205e-12
M43 N_1001_M43_d N_GND_M43_g N_1020_M43_s N_VDD_M42_b p L=1.8e-07 W=2.88e-06
+ AD=1.42965e-12 AS=1.0368e-12
M44 N_1021_M44_d N_1002_M44_g N_1001_M44_s N_VDD_M42_b p L=1.8e-07 W=4.5e-07
+ AD=1.62e-13 AS=1.42965e-12
M45 N_VDD_M45_d N_1005_M45_g N_1021_M45_s N_VDD_M42_b p L=1.8e-07 W=4.5e-07
+ AD=6.6015e-13 AS=1.62e-13
M46 N_1002_M46_d N_1001_M46_g N_VDD_M46_s N_VDD_M42_b p L=1.8e-07 W=1.35e-06
+ AD=7.29e-13 AS=6.6015e-13
M47 N_VDD_M47_d N_1003_M47_g N_1002_M47_s N_VDD_M42_b p L=1.8e-07 W=1.35e-06
+ AD=6.1965e-13 AS=7.29e-13
M48 N_VDD_M48_d N_RESET_M48_g N_1003_M48_s N_VDD_M42_b p L=1.8e-07 W=1.98e-06
+ AD=1.0692e-12 AS=9.1935e-13
M49 N_1004_M49_d N_1002_M49_g N_VDD_M49_s N_VDD_M42_b p L=1.8e-07 W=1.98e-06
+ AD=9.1935e-13 AS=1.0692e-12
M50 N_VDD_M50_d N_CLOCK_M50_g N_1005_M50_s N_VDD_M42_b p L=1.8e-07 W=1.98e-06
+ AD=1.134e-12 AS=9.1935e-13
M51 N_1000_M51_d N_1005_M51_g N_VDD_M51_s N_VDD_M42_b p L=1.8e-07 W=1.98e-06
+ AD=9.1935e-13 AS=1.134e-12
M52 N_1006_M52_d N_1000_M52_g N_1007_M52_s N_VDD_M42_b p L=1.8e-07 W=4.5e-07
+ AD=1.4661e-12 AS=2.2275e-13
M53 N_1022_M53_d N_1004_M53_g N_1006_M53_s N_VDD_M42_b p L=1.8e-07 W=2.88e-06
+ AD=1.0368e-12 AS=1.4661e-12
M54 N_VDD_M54_d N_1005_M54_g N_1022_M54_s N_VDD_M42_b p L=1.8e-07 W=2.88e-06
+ AD=1.60785e-12 AS=1.0368e-12
M55 N_1007_M55_d N_1008_M55_g N_VDD_M55_s N_VDD_M42_b p L=1.8e-07 W=4.5e-07
+ AD=2.43e-13 AS=1.60785e-12
M56 N_VDD_M56_d N_1003_M56_g N_1007_M56_s N_VDD_M42_b p L=1.8e-07 W=4.5e-07
+ AD=6.0345e-13 AS=2.43e-13
M57 N_1008_M57_d N_1006_M57_g N_VDD_M57_s N_VDD_M42_b p L=1.8e-07 W=9.9e-07
+ AD=4.9005e-13 AS=6.0345e-13
M58 N_VDD_M58_d N_1006_M58_g N_996_M58_s N_VDD_M42_b p L=1.8e-07 W=1.98e-06
+ AD=1.134e-12 AS=9.1935e-13
M59 N_960_M59_d N_996_M59_g N_VDD_M59_s N_VDD_M42_b p L=1.8e-07 W=1.98e-06
+ AD=9.1935e-13 AS=1.134e-12
mX60.M0 N_121_X60.M0_d N_119_X60.M0_g N_GND_X60.M0_s N_GND_X60.M0_b n L=1.8e-07
+ W=4.5e-07 AD=2.2275e-13 AS=2.9565e-13
mX60.M1 N_121_X60.M1_d N_119_X60.M1_g N_VDD_X60.M1_s N_VDD_X60.M1_b p L=1.8e-07
+ W=9.9e-07 AD=4.9005e-13 AS=5.6295e-13
mX61.M0 N_120_X61.M0_d N_T02[7]_X61.M0_g N_GND_X61.M0_s N_GND_X60.M0_b n
+ L=1.8e-07 W=4.5e-07 AD=2.2275e-13 AS=2.9565e-13
mX61.M1 N_120_X61.M1_d N_T02[7]_X61.M1_g N_VDD_X61.M1_s N_VDD_X61.M1_b p
+ L=1.8e-07 W=9.9e-07 AD=4.9005e-13 AS=5.6295e-13
mX62.M0 N_331_X62.M0_d N_330_X62.M0_g N_GND_X62.M0_s N_GND_X60.M0_b n L=1.8e-07
+ W=4.5e-07 AD=2.2275e-13 AS=2.9565e-13
mX62.M1 N_331_X62.M1_d N_330_X62.M1_g N_VDD_X62.M1_s N_VDD_X62.M1_b p L=1.8e-07
+ W=9.9e-07 AD=4.9005e-13 AS=5.6295e-13
mX63.M0 N_130_X63.M0_d N_350_X63.M0_g N_GND_X63.M0_s N_GND_X60.M0_b n L=1.8e-07
+ W=4.5e-07 AD=2.2275e-13 AS=2.9565e-13
mX63.M1 N_130_X63.M1_d N_350_X63.M1_g N_VDD_X63.M1_s N_VDD_X63.M1_b p L=1.8e-07
+ W=9.9e-07 AD=4.9005e-13 AS=5.6295e-13
mX64.M0 N_359_X64.M0_d N_376_X64.M0_g N_GND_X64.M0_s N_GND_X60.M0_b n L=1.8e-07
+ W=4.5e-07 AD=2.2275e-13 AS=2.9565e-13
mX64.M1 N_359_X64.M1_d N_376_X64.M1_g N_VDD_X64.M1_s N_VDD_X64.M1_b p L=1.8e-07
+ W=9.9e-07 AD=4.9005e-13 AS=5.6295e-13
mX65.M0 N_363_X65.M0_d N_375_X65.M0_g N_GND_X65.M0_s N_GND_X60.M0_b n L=1.8e-07
+ W=4.5e-07 AD=2.2275e-13 AS=2.9565e-13
mX65.M1 N_363_X65.M1_d N_375_X65.M1_g N_VDD_X65.M1_s N_VDD_X65.M1_b p L=1.8e-07
+ W=9.9e-07 AD=4.9005e-13 AS=5.6295e-13
mX66.M0 N_134_X66.M0_d N_371_X66.M0_g N_GND_X66.M0_s N_GND_X60.M0_b n L=1.8e-07
+ W=4.5e-07 AD=2.2275e-13 AS=2.9565e-13
mX66.M1 N_134_X66.M1_d N_371_X66.M1_g N_VDD_X66.M1_s N_VDD_X66.M1_b p L=1.8e-07
+ W=9.9e-07 AD=4.9005e-13 AS=5.6295e-13
mX67.M0 N_395_X67.M0_d N_378_X67.M0_g N_GND_X67.M0_s N_GND_X60.M0_b n L=1.8e-07
+ W=4.5e-07 AD=2.2275e-13 AS=2.9565e-13
mX67.M1 N_395_X67.M1_d N_378_X67.M1_g N_VDD_X67.M1_s N_VDD_X67.M1_b p L=1.8e-07
+ W=9.9e-07 AD=4.9005e-13 AS=5.6295e-13
mX68.M0 N_389_X68.M0_d N_T10[6]_X68.M0_g N_GND_X68.M0_s N_GND_X60.M0_b n
+ L=1.8e-07 W=4.5e-07 AD=2.2275e-13 AS=2.9565e-13
mX68.M1 N_389_X68.M1_d N_T10[6]_X68.M1_g N_VDD_X68.M1_s N_VDD_X68.M1_b p
+ L=1.8e-07 W=9.9e-07 AD=4.9005e-13 AS=5.6295e-13
mX69.M0 N_414_X69.M0_d N_140_X69.M0_g N_GND_X69.M0_s N_GND_X60.M0_b n L=1.8e-07
+ W=4.5e-07 AD=2.2275e-13 AS=2.9565e-13
mX69.M1 N_414_X69.M1_d N_140_X69.M1_g N_VDD_X69.M1_s N_VDD_X69.M1_b p L=1.8e-07
+ W=9.9e-07 AD=4.9005e-13 AS=5.6295e-13
mX70.M0 N_352_X70.M0_d N_34_X70.M0_g N_GND_X70.M0_s N_GND_X60.M0_b n L=1.8e-07
+ W=4.5e-07 AD=2.2275e-13 AS=2.9565e-13
mX70.M1 N_352_X70.M1_d N_34_X70.M1_g N_VDD_X70.M1_s N_VDD_X70.M1_b p L=1.8e-07
+ W=9.9e-07 AD=4.9005e-13 AS=5.6295e-13
mX71.M0 N_983_X71.M0_d N_430_X71.M0_g N_GND_X71.M0_s N_GND_X60.M0_b n L=1.8e-07
+ W=4.5e-07 AD=2.2275e-13 AS=2.9565e-13
mX71.M1 N_983_X71.M1_d N_430_X71.M1_g N_VDD_X71.M1_s N_VDD_X71.M1_b p L=1.8e-07
+ W=9.9e-07 AD=4.9005e-13 AS=5.6295e-13
mX72.M0 N_434_X72.M0_d N_26_X72.M0_g N_GND_X72.M0_s N_GND_X60.M0_b n L=1.8e-07
+ W=4.5e-07 AD=2.2275e-13 AS=2.9565e-13
mX72.M1 N_434_X72.M1_d N_26_X72.M1_g N_VDD_X72.M1_s N_VDD_X72.M1_b p L=1.8e-07
+ W=9.9e-07 AD=4.9005e-13 AS=5.6295e-13
mX73.M0 N_19_X73.M0_d N_18_X73.M0_g N_GND_X73.M0_s N_GND_X60.M0_b n L=1.8e-07
+ W=4.5e-07 AD=2.2275e-13 AS=2.9565e-13
mX73.M1 N_19_X73.M1_d N_18_X73.M1_g N_VDD_X73.M1_s N_VDD_X73.M1_b p L=1.8e-07
+ W=9.9e-07 AD=4.9005e-13 AS=5.6295e-13
mX74.M0 N_477_X74.M0_d N_25_X74.M0_g N_GND_X74.M0_s N_GND_X60.M0_b n L=1.8e-07
+ W=4.5e-07 AD=2.2275e-13 AS=2.9565e-13
mX74.M1 N_477_X74.M1_d N_25_X74.M1_g N_VDD_X74.M1_s N_VDD_X74.M1_b p L=1.8e-07
+ W=9.9e-07 AD=4.9005e-13 AS=5.6295e-13
mX75.M0 N_46_X75.M0_d N_18_X75.M0_g N_GND_X75.M0_s N_GND_X60.M0_b n L=1.8e-07
+ W=4.5e-07 AD=2.2275e-13 AS=2.9565e-13
mX75.M1 N_46_X75.M1_d N_18_X75.M1_g N_VDD_X75.M1_s N_VDD_X75.M1_b p L=1.8e-07
+ W=9.9e-07 AD=4.9005e-13 AS=5.6295e-13
mX76.M0 N_170_X76.M0_d N_481_X76.M0_g N_GND_X76.M0_s N_GND_X60.M0_b n L=1.8e-07
+ W=4.5e-07 AD=2.2275e-13 AS=2.9565e-13
mX76.M1 N_170_X76.M1_d N_481_X76.M1_g N_VDD_X76.M1_s N_VDD_X76.M1_b p L=1.8e-07
+ W=9.9e-07 AD=4.9005e-13 AS=5.6295e-13
mX77.M0 N_472_X77.M0_d N_204_X77.M0_g N_GND_X77.M0_s N_GND_X60.M0_b n L=1.8e-07
+ W=4.5e-07 AD=2.2275e-13 AS=2.9565e-13
mX77.M1 N_472_X77.M1_d N_204_X77.M1_g N_VDD_X77.M1_s N_VDD_X77.M1_b p L=1.8e-07
+ W=9.9e-07 AD=4.9005e-13 AS=5.6295e-13
mX78.M0 N_473_X78.M0_d N_191_X78.M0_g N_GND_X78.M0_s N_GND_X60.M0_b n L=1.8e-07
+ W=4.5e-07 AD=2.2275e-13 AS=2.9565e-13
mX78.M1 N_473_X78.M1_d N_191_X78.M1_g N_VDD_X78.M1_s N_VDD_X78.M1_b p L=1.8e-07
+ W=9.9e-07 AD=4.9005e-13 AS=5.6295e-13
mX79.M0 N_985_X79.M0_d N_169_X79.M0_g N_GND_X79.M0_s N_GND_X60.M0_b n L=1.8e-07
+ W=4.5e-07 AD=2.2275e-13 AS=2.9565e-13
mX79.M1 N_985_X79.M1_d N_169_X79.M1_g N_VDD_X79.M1_s N_VDD_X79.M1_b p L=1.8e-07
+ W=9.9e-07 AD=4.9005e-13 AS=5.6295e-13
mX80.M0 N_192_X80.M0_d N_481_X80.M0_g N_GND_X80.M0_s N_GND_X60.M0_b n L=1.8e-07
+ W=4.5e-07 AD=2.2275e-13 AS=2.9565e-13
mX80.M1 N_192_X80.M1_d N_481_X80.M1_g N_VDD_X80.M1_s N_VDD_X80.M1_b p L=1.8e-07
+ W=9.9e-07 AD=4.9005e-13 AS=5.6295e-13
mX81.M0 N_988_X81.M0_d N_504_X81.M0_g N_GND_X81.M0_s N_GND_X60.M0_b n L=1.8e-07
+ W=4.5e-07 AD=2.2275e-13 AS=2.9565e-13
mX81.M1 N_988_X81.M1_d N_504_X81.M1_g N_VDD_X81.M1_s N_VDD_X81.M1_b p L=1.8e-07
+ W=9.9e-07 AD=4.9005e-13 AS=5.6295e-13
mX82.M0 N_484_X82.M0_d N_158_X82.M0_g N_GND_X82.M0_s N_GND_X60.M0_b n L=1.8e-07
+ W=4.5e-07 AD=2.2275e-13 AS=2.9565e-13
mX82.M1 N_484_X82.M1_d N_158_X82.M1_g N_VDD_X82.M1_s N_VDD_X82.M1_b p L=1.8e-07
+ W=9.9e-07 AD=4.9005e-13 AS=5.6295e-13
mX83.M0 N_986_X83.M0_d N_523_X83.M0_g N_GND_X83.M0_s N_GND_X60.M0_b n L=1.8e-07
+ W=4.5e-07 AD=2.2275e-13 AS=2.9565e-13
mX83.M1 N_986_X83.M1_d N_523_X83.M1_g N_VDD_X83.M1_s N_VDD_X83.M1_b p L=1.8e-07
+ W=9.9e-07 AD=4.9005e-13 AS=5.6295e-13
mX84.M0 N_507_X84.M0_d N_187_X84.M0_g N_GND_X84.M0_s N_GND_X60.M0_b n L=1.8e-07
+ W=4.5e-07 AD=2.2275e-13 AS=2.9565e-13
mX84.M1 N_507_X84.M1_d N_187_X84.M1_g N_VDD_X84.M1_s N_VDD_X84.M1_b p L=1.8e-07
+ W=9.9e-07 AD=4.9005e-13 AS=5.6295e-13
mX85.M0 N_522_X85.M0_d N_182_X85.M0_g N_GND_X85.M0_s N_GND_X60.M0_b n L=1.8e-07
+ W=4.5e-07 AD=2.2275e-13 AS=2.9565e-13
mX85.M1 N_522_X85.M1_d N_182_X85.M1_g N_VDD_X85.M1_s N_VDD_X85.M1_b p L=1.8e-07
+ W=9.9e-07 AD=4.9005e-13 AS=5.6295e-13
mX86.M0 N_500_X86.M0_d N_T01[6]_X86.M0_g N_GND_X86.M0_s N_GND_X60.M0_b n
+ L=1.8e-07 W=4.5e-07 AD=2.2275e-13 AS=2.9565e-13
mX86.M1 N_500_X86.M1_d N_T01[6]_X86.M1_g N_VDD_X86.M1_s N_VDD_X86.M1_b p
+ L=1.8e-07 W=9.9e-07 AD=4.9005e-13 AS=5.6295e-13
mX87.M0 N_29_X87.M0_d N_30_X87.M0_g N_GND_X87.M0_s N_GND_X60.M0_b n L=1.8e-07
+ W=4.5e-07 AD=2.2275e-13 AS=2.9565e-13
mX87.M1 N_29_X87.M1_d N_30_X87.M1_g N_VDD_X87.M1_s N_VDD_X87.M1_b p L=1.8e-07
+ W=9.9e-07 AD=4.9005e-13 AS=5.6295e-13
mX88.M0 N_989_X88.M0_d N_185_X88.M0_g N_GND_X88.M0_s N_GND_X60.M0_b n L=1.8e-07
+ W=4.5e-07 AD=2.2275e-13 AS=2.9565e-13
mX88.M1 N_989_X88.M1_d N_185_X88.M1_g N_VDD_X88.M1_s N_VDD_X88.M1_b p L=1.8e-07
+ W=9.9e-07 AD=4.9005e-13 AS=5.6295e-13
mX89.M0 N_48_X89.M0_d N_30_X89.M0_g N_GND_X89.M0_s N_GND_X60.M0_b n L=1.8e-07
+ W=4.5e-07 AD=2.2275e-13 AS=2.9565e-13
mX89.M1 N_48_X89.M1_d N_30_X89.M1_g N_VDD_X89.M1_s N_VDD_X89.M1_b p L=1.8e-07
+ W=9.9e-07 AD=4.9005e-13 AS=5.6295e-13
mX90.M0 N_528_X90.M0_d N_511_X90.M0_g N_GND_X90.M0_s N_GND_X60.M0_b n L=1.8e-07
+ W=4.5e-07 AD=2.2275e-13 AS=2.9565e-13
mX90.M1 N_528_X90.M1_d N_511_X90.M1_g N_VDD_X90.M1_s N_VDD_X90.M1_b p L=1.8e-07
+ W=9.9e-07 AD=4.9005e-13 AS=5.6295e-13
mX91.M0 N_40_X91.M0_d N_545_X91.M0_g N_GND_X91.M0_s N_GND_X60.M0_b n L=1.8e-07
+ W=4.5e-07 AD=2.2275e-13 AS=2.9565e-13
mX91.M1 N_40_X91.M1_d N_545_X91.M1_g N_VDD_X91.M1_s N_VDD_X91.M1_b p L=1.8e-07
+ W=9.9e-07 AD=4.9005e-13 AS=5.6295e-13
mX92.M0 N_33_X92.M0_d N_194_X92.M0_g N_GND_X92.M0_s N_GND_X60.M0_b n L=1.8e-07
+ W=4.5e-07 AD=2.2275e-13 AS=2.9565e-13
mX92.M1 N_33_X92.M1_d N_194_X92.M1_g N_VDD_X92.M1_s N_VDD_X92.M1_b p L=1.8e-07
+ W=9.9e-07 AD=4.9005e-13 AS=5.6295e-13
mX93.M0 N_557_X93.M0_d N_58_X93.M0_g N_GND_X93.M0_s N_GND_X60.M0_b n L=1.8e-07
+ W=4.5e-07 AD=2.2275e-13 AS=2.9565e-13
mX93.M1 N_557_X93.M1_d N_58_X93.M1_g N_VDD_X93.M1_s N_VDD_X93.M1_b p L=1.8e-07
+ W=9.9e-07 AD=4.9005e-13 AS=5.6295e-13
mX94.M0 N_582_X94.M0_d N_39_X94.M0_g N_GND_X94.M0_s N_GND_X60.M0_b n L=1.8e-07
+ W=4.5e-07 AD=2.2275e-13 AS=2.9565e-13
mX94.M1 N_582_X94.M1_d N_39_X94.M1_g N_VDD_X94.M1_s N_VDD_X94.M1_b p L=1.8e-07
+ W=9.9e-07 AD=4.9005e-13 AS=5.6295e-13
mX95.M0 N_57_X95.M0_d N_39_X95.M0_g N_GND_X95.M0_s N_GND_X60.M0_b n L=1.8e-07
+ W=4.5e-07 AD=2.2275e-13 AS=2.9565e-13
mX95.M1 N_57_X95.M1_d N_39_X95.M1_g N_VDD_X95.M1_s N_VDD_X95.M1_b p L=1.8e-07
+ W=9.9e-07 AD=4.9005e-13 AS=5.6295e-13
mX96.M0 N_58_X96.M0_d N_34_X96.M0_g N_GND_X96.M0_s N_GND_X60.M0_b n L=1.8e-07
+ W=4.5e-07 AD=2.2275e-13 AS=2.9565e-13
mX96.M1 N_58_X96.M1_d N_34_X96.M1_g N_VDD_X96.M1_s N_VDD_X96.M1_b p L=1.8e-07
+ W=9.9e-07 AD=4.9005e-13 AS=5.6295e-13
mX97.M0 N_579_X97.M0_d N_564_X97.M0_g N_GND_X97.M0_s N_GND_X60.M0_b n L=1.8e-07
+ W=4.5e-07 AD=2.2275e-13 AS=2.9565e-13
mX97.M1 N_579_X97.M1_d N_564_X97.M1_g N_VDD_X97.M1_s N_VDD_X97.M1_b p L=1.8e-07
+ W=9.9e-07 AD=4.9005e-13 AS=5.6295e-13
mX98.M0 N_206_X98.M0_d N_34_X98.M0_g N_GND_X98.M0_s N_GND_X60.M0_b n L=1.8e-07
+ W=4.5e-07 AD=2.2275e-13 AS=2.9565e-13
mX98.M1 N_206_X98.M1_d N_34_X98.M1_g N_VDD_X98.M1_s N_VDD_X98.M1_b p L=1.8e-07
+ W=9.9e-07 AD=4.9005e-13 AS=5.6295e-13
mX99.M0 N_533_X99.M0_d N_204_X99.M0_g N_GND_X99.M0_s N_GND_X60.M0_b n L=1.8e-07
+ W=4.5e-07 AD=2.2275e-13 AS=2.9565e-13
mX99.M1 N_533_X99.M1_d N_204_X99.M1_g N_VDD_X99.M1_s N_VDD_X99.M1_b p L=1.8e-07
+ W=9.9e-07 AD=4.9005e-13 AS=5.6295e-13
mX100.M0 N_587_X100.M0_d N_558_X100.M0_g N_GND_X100.M0_s N_GND_X60.M0_b n
+ L=1.8e-07 W=4.5e-07 AD=2.2275e-13 AS=2.9565e-13
mX100.M1 N_587_X100.M1_d N_558_X100.M1_g N_VDD_X100.M1_s N_VDD_X100.M1_b p
+ L=1.8e-07 W=9.9e-07 AD=4.9005e-13 AS=5.6295e-13
mX101.M0 N_576_X101.M0_d N_595_X101.M0_g N_GND_X101.M0_s N_GND_X60.M0_b n
+ L=1.8e-07 W=4.5e-07 AD=2.2275e-13 AS=2.9565e-13
mX101.M1 N_576_X101.M1_d N_595_X101.M1_g N_VDD_X101.M1_s N_VDD_X101.M1_b p
+ L=1.8e-07 W=9.9e-07 AD=4.9005e-13 AS=5.6295e-13
mX102.M0 N_203_X102.M0_d N_584_X102.M0_g N_GND_X102.M0_s N_GND_X60.M0_b n
+ L=1.8e-07 W=4.5e-07 AD=2.2275e-13 AS=2.9565e-13
mX102.M1 N_203_X102.M1_d N_584_X102.M1_g N_VDD_X102.M1_s N_VDD_X102.M1_b p
+ L=1.8e-07 W=9.9e-07 AD=4.9005e-13 AS=5.6295e-13
mX103.M0 N_67_X103.M0_d N_584_X103.M0_g N_GND_X103.M0_s N_GND_X60.M0_b n
+ L=1.8e-07 W=4.5e-07 AD=2.2275e-13 AS=2.9565e-13
mX103.M1 N_67_X103.M1_d N_584_X103.M1_g N_VDD_X103.M1_s N_VDD_X103.M1_b p
+ L=1.8e-07 W=9.9e-07 AD=4.9005e-13 AS=5.6295e-13
mX104.M0 N_992_X104.M0_d N_242_X104.M0_g N_GND_X104.M0_s N_GND_X60.M0_b n
+ L=1.8e-07 W=4.5e-07 AD=2.2275e-13 AS=2.9565e-13
mX104.M1 N_992_X104.M1_d N_242_X104.M1_g N_VDD_X104.M1_s N_VDD_X104.M1_b p
+ L=1.8e-07 W=9.9e-07 AD=4.9005e-13 AS=5.6295e-13
mX105.M0 N_608_X105.M0_d N_221_X105.M0_g N_GND_X105.M0_s N_GND_X60.M0_b n
+ L=1.8e-07 W=4.5e-07 AD=2.2275e-13 AS=2.9565e-13
mX105.M1 N_608_X105.M1_d N_221_X105.M1_g N_VDD_X105.M1_s N_VDD_X105.M1_b p
+ L=1.8e-07 W=9.9e-07 AD=4.9005e-13 AS=5.6295e-13
mX106.M0 N_623_X106.M0_d N_632_X106.M0_g N_GND_X106.M0_s N_GND_X60.M0_b n
+ L=1.8e-07 W=4.5e-07 AD=2.2275e-13 AS=2.9565e-13
mX106.M1 N_623_X106.M1_d N_632_X106.M1_g N_VDD_X106.M1_s N_VDD_X106.M1_b p
+ L=1.8e-07 W=9.9e-07 AD=4.9005e-13 AS=5.6295e-13
mX107.M0 N_634_X107.M0_d N_648_X107.M0_g N_GND_X107.M0_s N_GND_X60.M0_b n
+ L=1.8e-07 W=4.5e-07 AD=2.2275e-13 AS=2.9565e-13
mX107.M1 N_634_X107.M1_d N_648_X107.M1_g N_VDD_X107.M1_s N_VDD_X107.M1_b p
+ L=1.8e-07 W=9.9e-07 AD=4.9005e-13 AS=5.6295e-13
mX108.M0 N_641_X108.M0_d N_644_X108.M0_g N_GND_X108.M0_s N_GND_X60.M0_b n
+ L=1.8e-07 W=4.5e-07 AD=2.2275e-13 AS=2.9565e-13
mX108.M1 N_641_X108.M1_d N_644_X108.M1_g N_VDD_X108.M1_s N_VDD_X108.M1_b p
+ L=1.8e-07 W=9.9e-07 AD=4.9005e-13 AS=5.6295e-13
mX109.M0 N_650_X109.M0_d N_T21[5]_X109.M0_g N_GND_X109.M0_s N_GND_X60.M0_b n
+ L=1.8e-07 W=4.5e-07 AD=2.2275e-13 AS=2.9565e-13
mX109.M1 N_650_X109.M1_d N_T21[5]_X109.M1_g N_VDD_X109.M1_s N_VDD_X109.M1_b p
+ L=1.8e-07 W=9.9e-07 AD=4.9005e-13 AS=5.6295e-13
mX110.M0 N_658_X110.M0_d N_657_X110.M0_g N_GND_X110.M0_s N_GND_X60.M0_b n
+ L=1.8e-07 W=4.5e-07 AD=2.2275e-13 AS=2.9565e-13
mX110.M1 N_658_X110.M1_d N_657_X110.M1_g N_VDD_X110.M1_s N_VDD_X110.M1_b p
+ L=1.8e-07 W=9.9e-07 AD=4.9005e-13 AS=5.6295e-13
mX111.M0 N_659_X111.M0_d N_T01[7]_X111.M0_g N_GND_X111.M0_s N_GND_X60.M0_b n
+ L=1.8e-07 W=4.5e-07 AD=2.2275e-13 AS=2.9565e-13
mX111.M1 N_659_X111.M1_d N_T01[7]_X111.M1_g N_VDD_X111.M1_s N_VDD_X111.M1_b p
+ L=1.8e-07 W=9.9e-07 AD=4.9005e-13 AS=5.6295e-13
mX112.M0 N_667_X112.M0_d N_300_X112.M0_g N_GND_X112.M0_s N_GND_X60.M0_b n
+ L=1.8e-07 W=4.5e-07 AD=2.2275e-13 AS=2.9565e-13
mX112.M1 N_667_X112.M1_d N_300_X112.M1_g N_VDD_X112.M1_s N_VDD_X112.M1_b p
+ L=1.8e-07 W=9.9e-07 AD=4.9005e-13 AS=5.6295e-13
mX113.M0 N_671_X113.M0_d N_236_X113.M0_g N_GND_X113.M0_s N_GND_X60.M0_b n
+ L=1.8e-07 W=4.5e-07 AD=2.2275e-13 AS=2.9565e-13
mX113.M1 N_671_X113.M1_d N_236_X113.M1_g N_VDD_X113.M1_s N_VDD_X113.M1_b p
+ L=1.8e-07 W=9.9e-07 AD=4.9005e-13 AS=5.6295e-13
mX114.M0 N_696_X114.M0_d N_T01[4]_X114.M0_g N_GND_X114.M0_s N_GND_X60.M0_b n
+ L=1.8e-07 W=4.5e-07 AD=2.2275e-13 AS=2.9565e-13
mX114.M1 N_696_X114.M1_d N_T01[4]_X114.M1_g N_VDD_X114.M1_s N_VDD_X114.M1_b p
+ L=1.8e-07 W=9.9e-07 AD=4.9005e-13 AS=5.6295e-13
mX115.M0 N_710_X115.M0_d N_T10[5]_X115.M0_g N_GND_X115.M0_s N_GND_X60.M0_b n
+ L=1.8e-07 W=4.5e-07 AD=2.2275e-13 AS=2.9565e-13
mX115.M1 N_710_X115.M1_d N_T10[5]_X115.M1_g N_VDD_X115.M1_s N_VDD_X115.M1_b p
+ L=1.8e-07 W=9.9e-07 AD=4.9005e-13 AS=5.6295e-13
mX116.M0 N_714_X116.M0_d N_T10[4]_X116.M0_g N_GND_X116.M0_s N_GND_X60.M0_b n
+ L=1.8e-07 W=4.5e-07 AD=2.2275e-13 AS=2.9565e-13
mX116.M1 N_714_X116.M1_d N_T10[4]_X116.M1_g N_VDD_X116.M1_s N_VDD_X116.M1_b p
+ L=1.8e-07 W=9.9e-07 AD=4.9005e-13 AS=5.6295e-13
mX117.M0 N_725_X117.M0_d N_249_X117.M0_g N_GND_X117.M0_s N_GND_X60.M0_b n
+ L=1.8e-07 W=4.5e-07 AD=2.2275e-13 AS=2.9565e-13
mX117.M1 N_725_X117.M1_d N_249_X117.M1_g N_VDD_X117.M1_s N_VDD_X117.M1_b p
+ L=1.8e-07 W=9.9e-07 AD=4.9005e-13 AS=5.6295e-13
mX118.M0 N_779_X118.M0_d N_T01[5]_X118.M0_g N_GND_X118.M0_s N_GND_X60.M0_b n
+ L=1.8e-07 W=4.5e-07 AD=2.2275e-13 AS=2.9565e-13
mX118.M1 N_779_X118.M1_d N_T01[5]_X118.M1_g N_VDD_X118.M1_s N_VDD_X118.M1_b p
+ L=1.8e-07 W=9.9e-07 AD=4.9005e-13 AS=5.6295e-13
mX119.M0 N_783_X119.M0_d N_799_X119.M0_g N_GND_X119.M0_s N_GND_X60.M0_b n
+ L=1.8e-07 W=4.5e-07 AD=2.2275e-13 AS=2.9565e-13
mX119.M1 N_783_X119.M1_d N_799_X119.M1_g N_VDD_X119.M1_s N_VDD_X119.M1_b p
+ L=1.8e-07 W=9.9e-07 AD=4.9005e-13 AS=5.6295e-13
mX120.M0 N_788_X120.M0_d N_808_X120.M0_g N_GND_X120.M0_s N_GND_X60.M0_b n
+ L=1.8e-07 W=4.5e-07 AD=2.2275e-13 AS=2.9565e-13
mX120.M1 N_788_X120.M1_d N_808_X120.M1_g N_VDD_X120.M1_s N_VDD_X120.M1_b p
+ L=1.8e-07 W=9.9e-07 AD=4.9005e-13 AS=5.6295e-13
mX121.M0 N_790_X121.M0_d N_276_X121.M0_g N_GND_X121.M0_s N_GND_X60.M0_b n
+ L=1.8e-07 W=4.5e-07 AD=2.2275e-13 AS=2.9565e-13
mX121.M1 N_790_X121.M1_d N_276_X121.M1_g N_VDD_X121.M1_s N_VDD_X121.M1_b p
+ L=1.8e-07 W=9.9e-07 AD=4.9005e-13 AS=5.6295e-13
mX122.M0 N_820_X122.M0_d N_285_X122.M0_g N_GND_X122.M0_s N_GND_X60.M0_b n
+ L=1.8e-07 W=4.5e-07 AD=2.2275e-13 AS=2.9565e-13
mX122.M1 N_820_X122.M1_d N_285_X122.M1_g N_VDD_X122.M1_s N_VDD_X122.M1_b p
+ L=1.8e-07 W=9.9e-07 AD=4.9005e-13 AS=5.6295e-13
mX123.M0 N_822_X123.M0_d N_T10[2]_X123.M0_g N_GND_X123.M0_s N_GND_X60.M0_b n
+ L=1.8e-07 W=4.5e-07 AD=2.2275e-13 AS=2.9565e-13
mX123.M1 N_822_X123.M1_d N_T10[2]_X123.M1_g N_VDD_X123.M1_s N_VDD_X123.M1_b p
+ L=1.8e-07 W=9.9e-07 AD=4.9005e-13 AS=5.6295e-13
mX124.M0 N_828_X124.M0_d N_842_X124.M0_g N_GND_X124.M0_s N_GND_X60.M0_b n
+ L=1.8e-07 W=4.5e-07 AD=2.2275e-13 AS=2.9565e-13
mX124.M1 N_828_X124.M1_d N_842_X124.M1_g N_VDD_X124.M1_s N_VDD_X124.M1_b p
+ L=1.8e-07 W=9.9e-07 AD=4.9005e-13 AS=5.6295e-13
mX125.M0 N_855_X125.M0_d N_838_X125.M0_g N_GND_X125.M0_s N_GND_X60.M0_b n
+ L=1.8e-07 W=4.5e-07 AD=2.2275e-13 AS=2.9565e-13
mX125.M1 N_855_X125.M1_d N_838_X125.M1_g N_VDD_X125.M1_s N_VDD_X125.M1_b p
+ L=1.8e-07 W=9.9e-07 AD=4.9005e-13 AS=5.6295e-13
mX126.M0 N_853_X126.M0_d N_T20[3]_X126.M0_g N_GND_X126.M0_s N_GND_X60.M0_b n
+ L=1.8e-07 W=4.5e-07 AD=2.2275e-13 AS=2.9565e-13
mX126.M1 N_853_X126.M1_d N_T20[3]_X126.M1_g N_VDD_X126.M1_s N_VDD_X126.M1_b p
+ L=1.8e-07 W=9.9e-07 AD=4.9005e-13 AS=5.6295e-13
mX127.M0 N_840_X127.M0_d N_858_X127.M0_g N_GND_X127.M0_s N_GND_X60.M0_b n
+ L=1.8e-07 W=4.5e-07 AD=2.2275e-13 AS=2.9565e-13
mX127.M1 N_840_X127.M1_d N_858_X127.M1_g N_VDD_X127.M1_s N_VDD_X127.M1_b p
+ L=1.8e-07 W=9.9e-07 AD=4.9005e-13 AS=5.6295e-13
mX128.M0 N_843_X128.M0_d N_304_X128.M0_g N_GND_X128.M0_s N_GND_X60.M0_b n
+ L=1.8e-07 W=4.5e-07 AD=2.2275e-13 AS=2.9565e-13
mX128.M1 N_843_X128.M1_d N_304_X128.M1_g N_VDD_X128.M1_s N_VDD_X128.M1_b p
+ L=1.8e-07 W=9.9e-07 AD=4.9005e-13 AS=5.6295e-13
mX129.M0 N_854_X129.M0_d N_868_X129.M0_g N_GND_X129.M0_s N_GND_X60.M0_b n
+ L=1.8e-07 W=4.5e-07 AD=2.2275e-13 AS=2.9565e-13
mX129.M1 N_854_X129.M1_d N_868_X129.M1_g N_VDD_X129.M1_s N_VDD_X129.M1_b p
+ L=1.8e-07 W=9.9e-07 AD=4.9005e-13 AS=5.6295e-13
mX130.M0 N_870_X130.M0_d N_856_X130.M0_g N_GND_X130.M0_s N_GND_X60.M0_b n
+ L=1.8e-07 W=4.5e-07 AD=2.2275e-13 AS=2.9565e-13
mX130.M1 N_870_X130.M1_d N_856_X130.M1_g N_VDD_X130.M1_s N_VDD_X130.M1_b p
+ L=1.8e-07 W=9.9e-07 AD=4.9005e-13 AS=5.6295e-13
mX131.M0 N_873_X131.M0_d N_876_X131.M0_g N_GND_X131.M0_s N_GND_X60.M0_b n
+ L=1.8e-07 W=4.5e-07 AD=2.2275e-13 AS=2.9565e-13
mX131.M1 N_873_X131.M1_d N_876_X131.M1_g N_VDD_X131.M1_s N_VDD_X131.M1_b p
+ L=1.8e-07 W=9.9e-07 AD=4.9005e-13 AS=5.6295e-13
mX132.M0 N_875_X132.M0_d N_888_X132.M0_g N_GND_X132.M0_s N_GND_X60.M0_b n
+ L=1.8e-07 W=4.5e-07 AD=2.2275e-13 AS=2.9565e-13
mX132.M1 N_875_X132.M1_d N_888_X132.M1_g N_VDD_X132.M1_s N_VDD_X132.M1_b p
+ L=1.8e-07 W=9.9e-07 AD=4.9005e-13 AS=5.6295e-13
mX133.M0 N_901_X133.M0_d N_309_X133.M0_g N_GND_X133.M0_s N_GND_X60.M0_b n
+ L=1.8e-07 W=4.5e-07 AD=2.2275e-13 AS=2.9565e-13
mX133.M1 N_901_X133.M1_d N_309_X133.M1_g N_VDD_X133.M1_s N_VDD_X133.M1_b p
+ L=1.8e-07 W=9.9e-07 AD=4.9005e-13 AS=5.6295e-13
mX134.M0 N_923_X134.M0_d N_925_X134.M0_g N_GND_X134.M0_s N_GND_X60.M0_b n
+ L=1.8e-07 W=4.5e-07 AD=2.2275e-13 AS=2.9565e-13
mX134.M1 N_923_X134.M1_d N_925_X134.M1_g N_VDD_X134.M1_s N_VDD_X134.M1_b p
+ L=1.8e-07 W=9.9e-07 AD=4.9005e-13 AS=5.6295e-13
mX135.M0 N_995_X135.M0_d N_935_X135.M0_g N_GND_X135.M0_s N_GND_X60.M0_b n
+ L=1.8e-07 W=4.5e-07 AD=2.2275e-13 AS=2.9565e-13
mX135.M1 N_995_X135.M1_d N_935_X135.M1_g N_VDD_X135.M1_s N_VDD_X135.M1_b p
+ L=1.8e-07 W=9.9e-07 AD=4.9005e-13 AS=5.6295e-13
mX136.M0 N_959_X136.M0_d N_954_X136.M0_g N_GND_X136.M0_s N_GND_X60.M0_b n
+ L=1.8e-07 W=4.5e-07 AD=2.2275e-13 AS=2.9565e-13
mX136.M1 N_959_X136.M1_d N_954_X136.M1_g N_VDD_X136.M1_s N_VDD_X136.M1_b p
+ L=1.8e-07 W=9.9e-07 AD=4.9005e-13 AS=5.6295e-13
mX137.M0 N_965_X137.M0_d N_321_X137.M0_g N_GND_X137.M0_s N_GND_X60.M0_b n
+ L=1.8e-07 W=4.5e-07 AD=2.2275e-13 AS=2.9565e-13
mX137.M1 N_965_X137.M1_d N_321_X137.M1_g N_VDD_X137.M1_s N_VDD_X137.M1_b p
+ L=1.8e-07 W=9.9e-07 AD=4.9005e-13 AS=5.6295e-13
mX138.M0 N_968_X138.M0_d N_T01[2]_X138.M0_g N_GND_X138.M0_s N_GND_X60.M0_b n
+ L=1.8e-07 W=4.5e-07 AD=2.2275e-13 AS=2.9565e-13
mX138.M1 N_968_X138.M1_d N_T01[2]_X138.M1_g N_VDD_X138.M1_s N_VDD_X138.M1_b p
+ L=1.8e-07 W=9.9e-07 AD=4.9005e-13 AS=5.6295e-13
mX139.M0 N_977_X139.M0_d N_T01[3]_X139.M0_g N_GND_X139.M0_s N_GND_X60.M0_b n
+ L=1.8e-07 W=4.5e-07 AD=2.2275e-13 AS=2.9565e-13
mX139.M1 N_977_X139.M1_d N_T01[3]_X139.M1_g N_VDD_X139.M1_s N_VDD_X139.M1_b p
+ L=1.8e-07 W=9.9e-07 AD=4.9005e-13 AS=5.6295e-13
mX140.M0 N_GND_X140.M0_d N_362_X140.M0_g N_X140.5_X140.M0_s N_GND_X60.M0_b n
+ L=1.8e-07 W=4.5e-07 AD=3.078e-13 AS=2.2275e-13
mX140.M1 N_119_X140.M1_d N_334_X140.M1_g N_GND_X140.M1_s N_GND_X60.M0_b n
+ L=1.8e-07 W=4.5e-07 AD=2.43e-13 AS=3.078e-13
mX140.M2 N_GND_X140.M2_d N_X140.5_X140.M2_g N_119_X140.M2_s N_GND_X60.M0_b n
+ L=1.8e-07 W=4.5e-07 AD=2.9565e-13 AS=2.43e-13
mX140.M3 N_VDD_X140.M3_d N_362_X140.M3_g N_X140.5_X140.M3_s N_VDD_X140.M3_b p
+ L=1.8e-07 W=9.9e-07 AD=9.1935e-13 AS=4.9005e-13
mX140.M4 N_X140.7_X140.M4_d N_334_X140.M4_g N_VDD_X140.M4_s N_VDD_X140.M3_b p
+ L=1.8e-07 W=1.53e-06 AD=5.508e-13 AS=9.1935e-13
mX140.M5 N_119_X140.M5_d N_X140.5_X140.M5_g N_X140.7_X140.M5_s N_VDD_X140.M3_b p
+ L=1.8e-07 W=1.53e-06 AD=7.5735e-13 AS=5.508e-13
mX141.M0 N_GND_X141.M0_d N_332_X141.M0_g N_X141.5_X141.M0_s N_GND_X60.M0_b n
+ L=1.8e-07 W=4.5e-07 AD=3.078e-13 AS=2.2275e-13
mX141.M1 N_330_X141.M1_d N_340_X141.M1_g N_GND_X141.M1_s N_GND_X60.M0_b n
+ L=1.8e-07 W=4.5e-07 AD=2.43e-13 AS=3.078e-13
mX141.M2 N_GND_X141.M2_d N_X141.5_X141.M2_g N_330_X141.M2_s N_GND_X60.M0_b n
+ L=1.8e-07 W=4.5e-07 AD=2.9565e-13 AS=2.43e-13
mX141.M3 N_VDD_X141.M3_d N_332_X141.M3_g N_X141.5_X141.M3_s N_VDD_X141.M3_b p
+ L=1.8e-07 W=9.9e-07 AD=9.1935e-13 AS=4.9005e-13
mX141.M4 N_X141.7_X141.M4_d N_340_X141.M4_g N_VDD_X141.M4_s N_VDD_X141.M3_b p
+ L=1.8e-07 W=1.53e-06 AD=5.508e-13 AS=9.1935e-13
mX141.M5 N_330_X141.M5_d N_X141.5_X141.M5_g N_X141.7_X141.M5_s N_VDD_X141.M3_b p